8
(0306 6 7 8 5 1000 10e-12 10
(0704 5 8 7 5 1000 10e-12 10
(0801 3 3 4 5 1000 10e-12 10
(0205 1 4 6 5 1000 10e-12 10
(0602 1 3 5 5 1000 10e-12 10
V0100 3 0 DC 10
V0100 1 0 PULSE 0 5 1E-6 10E-9 10E-9 0.5E-6 1E-6 5
V0100 7 0 PULSE 0 5 0 0 0 0.5E-7 1E-7 1
.TRAN 10E-6 1E-9 BE 1 UIC