1
R100 1 0 1
V0100 1 0 PULSE 0 5 1e-2 10e-2 10e-2 0.1 0.1002 5
.TRAN 1 1e-3 BE 1 UIC
