1
R100 1 0 1
V0100 1 0 PULSE 0 5 1e-4 10e-7 10e-7 0.5e-4 1e-4 5
.TRAN 10e-4 1e-7 BE 1 UIC