6
R0100 1 0 1000
R0200 2 0 1000
R0300 3 0 1000
R0400 4 0 1000
)0506 5 6 1 5 1000 10E-12 2
(0506 5 6 2 5 1000 10E-12 2
}0506 5 6 3 5 1000 10E-12 2
{0506 5 6 4 5 1000 10E-12 2
V0500 5 0 PULSE 0 5 0 10E-6 10E-6 0 20E-6 1
V0600 6 0 PULSE 0 5 0 1E-6 1E-6 0 2E-6 10
.TRAN 10E-6 10E-9 BE 1 UIC
