7
R0102 1 2 20000
R0304 3 4 10000
%0506 5 6 6 7 5 1000 10e-12
%0201 2 1 1 6 5 1000 10e-12
%0403 4 3 3 1 5 1000 10e-12
V0700 7 0 PULSE 0 5 1E-9 1E-9 1E-9 10E-9 20E-9 1000
.TRAN 1000E-9 0.1E-9 BE 1 UIC
