RC
R0102 1 0 1
L0300 1 0 1E-1 IC=1
.TRAN 1 0.0001 BE 1 UCI