simples
R0100 1 0 5
R0200 1 0 5.1
V0100 1 0 DC 10
.TRAN 1 0.0001 BE 1 UIC