12
R0102 1 2 1E6
R0103 1 3 2E6
R0104 1 4 4E6
R0105 1 5 8E6
!XXX 15 16 5 10E-12
%0212 2 12 12 11 !XXX 5 1000 10E-12
%0410 4 10 10 8 !XXX 5 1000 10E-12
%0311 3 11 11 10 !XXX 5 1000 10E-12
%0508 5 8 8 9 !XXX 5 1000 10E-12
)0204 2 4 16 5 1000 10e-12 10
*V0908 16 0 PULSE 0 5 10E-3 1E-9 1E-9 5E-3 10E-3 1
V0900 9 0 PULSE 0 5 0.5E-3 1E-9 1E-9 0.5E-3 1E-3 1000
.TRAN 30E-3 30E-6 BE 1 UIC