8
R0102 1 2 4E6
R0103 1 3 8E6
!XXX 4 5 5 10E-12
%0306 3 6 6 7 !XXX 5 1000 10E-12
%0208 2 8 8 6 !XXX 5 1000 10E-12
)0302 3 2 5 5 1000 10e-12 10
V0700 7 0 PULSE 0 5 0.5E-3 1E-9 1E-9 0.5E-3 1E-3 1000
.TRAN 30E-3 30E-6 BE 1 UIC
