10
R0102 1 2 1E6
R0103 1 3 2E6
R0104 1 4 4E6
R0105 1 5 8E6
%0506 5 6 6 7 5 1000 10E-12
%0408 4 8 8 6 5 1000 10E-12
%0309 3 9 9 8 5 1000 10E-12
%0210 2 10 10 9 5 1000 10E-12
V0700 7 0 PULSE 0 5 0.5E-3 1E-9 1E-9 0.5E-3 1E-3 1000
.TRAN 30E-3 30E-6 BE 1 UIC
