ffd
*V0700 3 0 DC 5
V0200 3 0 PULSE 0 5 0 10E-9 10E-9 2E-6 4E-6 2
%0100 4 2 3 1 5 1000 10e-12
V0100 1 0 PULSE 0 5 0 10E-9 10E-9 0.25E-6 0.5E-6 20
.TRAN 10E-6 1E-9 BE 1 UIC