ffd
V0700 4 0 PULSE 0 5 0 1E-9 1E-9 300E-9 600E-9 3
%0100 2 3 4 1 5 1000 10e-12
V0700 1 0 PULSE 0 5 1E-9 1E-9 1E-9 10E-9 20E-9 1000
.TRAN 1000E-9 0.1E-9 BE 1 UIC
