12
!XXX 8 6 5 10E-12
%0508 2 3 5 1 !XXX 5 1000 10E-12
%0509 10 11 5 1 !XXX 5 1000 10E-12
V9090 5 0 DC 5
V0908 1 0 PULSE 0 5 0.5E-3 1E-9 1E-9 0.5E-3 1E-3 1000
V0900 6 0 PULSE 0 5 15E-3 1E-9 1E-9 15E-3 30E-3 1
.TRAN 30E-3 30E-6 BE 1 UIC