11
)0102 1 2 3 5 1000 10e-12 10
)0405 4 5 6 5 1000 10e-12 10
(0708 7 8 9 5 1000 10e-12 10
(0609 6 9 7 5 1000 10e-12 10
(1007 10 7 8 5 1000 10e-12 10
(1104 11 4 5 5 1000 10e-12 10
(0508 5 8 10 5 1000 10e-12 10
(0905 9 5 11 5 1000 10e-12 10
V0400 4 0 PULSE 0 5 1E-6 10E-9 10E-9 0.5E-6 1E-6 5
.TRAN 10E-6 1E-9 BE 1 UIC
