1
R100 1 0 1
V0100 1 0 PULSE 0 5 1e-6 10e-9 10e-9 0.5e-6 1e-6 5
.TRAN 10e-6 1e-9 BE 1 UIC
