7
G0100 1 0 2 0 4E-4
*@0203 2 3 1 0 5 1000 10E-12 100E-9
R0102 1 0 1E6
R0102 2 0 1E6
V9000 2 0 DC 5
.TRAN 1000E-9 0.1E-9 BE 1 UIC