7
G0100 0 1 2 0 1E-3
*@0203 2 3 1 0 5 1000 10E-12 100E-9
R0102 2 0 1000
*R0103 3 0 1000
R0104 1 0 1000
I0001 0 2 DC 1E-3
.TRAN 1000E-3 1E-3 BE 1 UIC