3
*V500 4 0 DC 5
@0102 1 2 3 0 5 1000.0 10E-12 5E-9
*%0102 1 2 4 3 5 1000 10E-12
V0900 3 0 PULSE 0 5 0.5E-9 1E-11 1E-11 1E-9 10E-9 10
.TRAN 10E-8 0.01E-9 BE 1 UIC
