7
C0100 1 0 0.1E-9
G0100 1 0 2 0 4E-4
@0203 2 3 1 0 5 1000 10E-12 100E-9
@0405 4 5 3 0 5 1000 10E-12 60E-9
@0607 6 7 3 0 5 1000 10E-12 120E-9
I0001 0 1 DC 1E-3
.TRAN 1000E-9 0.1E-9 BE 1 UIC
